/*--------------------------------*- C++ -*----------------------------------*\
| =========                 |                                                 |
| \\      /  F ield         | OpenFOAM: The Open Source CFD Toolbox           |
|  \\    /   O peration     | Version:  5                                     |
|   \\  /    A nd           | Web:      www.OpenFOAM.org                      |
|    \\/     M anipulation  |                                                 |
\*---------------------------------------------------------------------------*/
FoamFile
{
    version     2.0;
    format      ascii;
    class       dictionary;
    object      blockMeshDict;
}
// * * * * * * * * * * * * * * * * * * * * * * * * * * * * * * * * * * * * * //

convertToMeters 1;

vertices
(
    (0 0 0) //0
    (7.5 0 0)//1
    (7.75 0 0)//2
    (10 0 0)//3
    (0 0 2)//4
    (7.5 0 2)//5
    (7.75 0 2)//6
    (10 0 2)   //7
    (0 0.25 0)//8
    (7.5 0.25 0)//9
    (7.75 0.25 0)//10
    (10 0.25 0)//11
	(0 0.25 2) //12
    (7.5 0.25 2)//13
    (7.75 0.25 2)//14
    (10 0.25 2)//15
    (0 2 0)//16
    (7.5 2 0)//17
    (7.75 2 0)//18
    (10 2 0)   //19
    (0 2 2)//20
    (7.5 2 2)//21
    (7.75 2 2)//22
    (10 2 2)//23

);

blocks
(
    hex (0 1 9 8 4 5 13 12) (6 5 1) simpleGrading (0.2 0.2 1)//1
	hex (8 9 17 16 12 13 21 20) (6 5 1) simpleGrading (0.2 10 1)//2
    hex (9 10 18 17 13 14 22 21) (2 5 1) simpleGrading (1 10 1)//3//small
	hex (2 3 11 10 6 7 15 14) (3 5 1) simpleGrading (10 0.2 1)//4
	hex (10 11 19 18 14 15 23 22) (3 5 1) simpleGrading (10 10 1)//5
);

edges
(
);

boundary
(
    inlet//0
    {
        type patch;
        faces
        (
            (20 16 8 12)
            (0 4 12 8)
        );
    }
    outlet//1
    {
        type patch;
        faces
        (
            (23 15 11 19)
			(15 7 3 11)
        );
    }
    bottom//2
    {
        type symmetryPlane;
        faces
        (
            (4 0 1 5 )
			(2 3 7 6)
        );
    }
    top//3
    {
        type symmetryPlane;
        faces
        (
            (16 20 21 17)
            (17 21 22 18)
			(22 23 19 18)
        );
    }
    obstacle//4
    {
        type wall;
        faces
        (
            (13 5 1 9)
            (6 14 10 2)
			(9 10 14 13)
        );
    }
);

mergePatchPairs
(
);

// ************************************************************************* //
